01_Sept_Code/lf_rep.txt
inner load flow iterations
     5

 tap iterations 
     1

                             LOAD-FLOW STUDY
                    REPORT OF POWER FLOW CALCULATIONS 
 
29-Jan-2016
SWING BUS                  : BUS 1 
NUMBER OF ITERATIONS       : 5 
SOLUTION TIME              : 0.004 sec.
TOTAL TIME                 : 0.007 sec.
TOTAL REAL POWER LOSSES    : 0.697427.
TOTAL REACTIVE POWER LOSSES: 11.5892.

                                      GENERATION             LOAD
       BUS     VOLTS     ANGLE      REAL  REACTIVE      REAL  REACTIVE 
  Columns 1 through 2

    1.0000    1.0300
    2.0000    1.0100
    3.0000    0.9623
    4.0000    0.9543
   10.0000    1.0051
   11.0000    1.0300
   12.0000    1.0100
   13.0000    1.0148
   14.0000    1.0075
   20.0000    0.9776
  101.0000    1.0500
  110.0000    1.0182
  120.0000    1.0077

  Columns 3 through 4

   18.5000    7.5374
    7.4165    7.0000
   -8.1140         0
  -12.4855         0
   11.5161         0
   15.0708    7.1600
    5.1194    7.0000
   -9.4292         0
  -13.3548         0
    0.6169         0
   -9.1454    0.0000
    8.5238         0
   -1.4760         0

  Columns 5 through 6

    1.9965         0
    2.3772         0
         0    0.0000
         0   14.0000
         0   -0.0000
    1.1386         0
    0.5419         0
         0   -0.0000
         0   14.0000
         0    0.0000
   -0.2817         0
         0   -0.0000
         0   -0.0000

  Column 7

         0
         0
    0.0000
    1.0000
   -0.0000
         0
         0
    0.0000
    1.0000
   -0.0000
         0
   -0.0000
   -0.0000

                      LINE FLOWS                     
      LINE  FROM BUS    TO BUS      REAL  REACTIVE   
  Columns 1 through 2

    1.0000    1.0000
    2.0000    2.0000
    3.0000    3.0000
    4.0000    3.0000
    5.0000    3.0000
    6.0000    3.0000
    7.0000   10.0000
    8.0000   11.0000
    9.0000   12.0000
   10.0000   13.0000
   11.0000   13.0000
   12.0000   13.0000
   13.0000   13.0000
   14.0000  110.0000

  Columns 3 through 4

   10.0000    7.5374
   20.0000    7.0000
    4.0000   14.0000
   20.0000  -14.1759
  101.0000    0.0879
  101.0000    0.0879
   20.0000    7.5374
  110.0000    7.1600
  120.0000    7.0000
   14.0000   14.0000
  101.0000   -0.0796
  101.0000   -0.0796
  120.0000  -13.8408
  120.0000    7.1600

  Column 5

    1.9965
    2.3772
    2.0816
    1.0342
   -0.8633
   -0.8633
    1.0394
    1.1386
    0.5419
    1.9704
   -0.4154
   -0.4154
    3.0830
    0.3112

  Columns 1 through 2

    1.0000   10.0000
    2.0000   20.0000
    3.0000    4.0000
    4.0000   20.0000
    5.0000  101.0000
    6.0000  101.0000
    7.0000   20.0000
    8.0000  110.0000
    9.0000  120.0000
   10.0000   14.0000
   11.0000  101.0000
   12.0000  101.0000
   13.0000  120.0000
   14.0000  120.0000

  Columns 3 through 4

    1.0000   -7.5374
    2.0000   -7.0000
    3.0000  -14.0000
    3.0000   14.3940
    3.0000   -0.0807
    3.0000   -0.0807
   10.0000   -7.3940
   11.0000   -7.1600
   12.0000   -7.0000
   13.0000  -14.0000
   13.0000    0.0807
   13.0000    0.0807
   13.0000   14.0361
  110.0000   -7.0361

  Column 5

   -1.0394
   -1.4825
   -1.0000
    1.1310
    0.7402
    0.7402
    0.3515
   -0.3112
    0.2651
   -1.0000
    0.2215
    0.2215
   -1.1480
    0.8829

